#!/sbin/sh
##########################################################################################
#
# Magisk Module Template Install Script
# by topjohnwu
#
##########################################################################################

# Detect whether in boot mode
ps | grep zygote | grep -v grep >/dev/null && BOOTMODE=true || BOOTMODE=false
$BOOTMODE || ps -A 2>/dev/null | grep zygote | grep -v grep >/dev/null && BOOTMODE=true

# This path should work in any cases
MOUNTPATH=/magisk
IMG=/data/magisk.img
if $BOOTMODE; then
  MOUNTPATH=/dev/magisk_merge
  IMG=/data/magisk_merge.img
fi
INSTALLER=/tmp/zip/META-INF/com/google/android/modules/magisk
MAGISKBIN=/data/magisk

# Default permissions
umask 022

##########################################################################################
# Flashable update-binary preparation
##########################################################################################

# Mount /data to access MAGISKBIN
mount /data 2>/dev/null

# MAGISKBIN must exist, binaries and utility functions are placed there
[ -d $MAGISKBIN -a -f $MAGISKBIN/magisk -a -f $MAGISKBIN/util_functions.sh ] || require_new_magisk

# Load utility fuctions
. $MAGISKBIN/util_functions.sh
[ ! -z $SCRIPT_VERSION -a $SCRIPT_VERSION -ge 1310 ] || require_new_magisk

ui_print() {
  if $BOOTMODE; then
    echo "$1"
  else
    echo -n -e "ui_print $1\n" >> $OUTFD
    echo -n -e "ui_print\n" >> $OUTFD
  fi
}

require_new_magisk() {
  ui_print "***********************************"
  ui_print "! $MAGISKBIN isn't setup properly!"
  ui_print "! Please install Magisk v13.1+!"
  ui_print "***********************************"
  exit 1
}

cd $INSTALLER

##########################################################################################
# Prepare
##########################################################################################

. $INSTALLER/config.sh

MODPATH=$MOUNTPATH/$MODID

# Print mod name
print_modname

# Please leave this message in your flashable zip for credits :)
ui_print "******************************"
ui_print "Powered by Magisk (@topjohnwu)"
ui_print "******************************"

[ ! -f /data/magisk.img ] && abort "! Magisk is not installed"
$BOOTMODE && ! is_mounted /magisk && abort "! Magisk is not activated!"

# Detect version and architecture
api_level_arch_detect

# You can get the Android API version from $API, the CPU architecture from $ARCH
# Useful if you are creating Android version / platform dependent mods

##########################################################################################
# Install
##########################################################################################

request_size_check $INSTALLER/size.zip

# We're going to use magisk binary now, require some recovery fixes
$BOOTMODE || recovery_actions

if [ -f "$IMG" ]; then
  ui_print "- $IMG detected!"
  image_size_check $IMG
  if [ "$reqSizeM" -gt "$curFreeM" ]; then
    newSizeM=$(((reqSizeM + curUsedM) / 32 * 32 + 64))
    ui_print "- Resizing $IMG to ${newSizeM}M"
    $MAGISKBIN/magisk --resizeimg $IMG $newSizeM
  fi
else
  newSizeM=$((reqSizeM / 32 * 32 + 64));
  ui_print "- Creating $IMG with size ${newSizeM}M"
  $MAGISKBIN/magisk --createimg $IMG $newSizeM
fi

ui_print "- Mounting $IMG to $MOUNTPATH"
MAGISKLOOP=`$MAGISKBIN/magisk --mountimg $IMG $MOUNTPATH`
is_mounted $MOUNTPATH || abort"! $IMG mount failed..."

# Create mod paths
rm -rf $MODPATH 2>/dev/null
mkdir -p $MODPATH

# Copy files
ui_print "- Copying files"
mkdir -p $MODPATH/$SYS/bin
cp -f $SYS/bin/iss_daemon $MODPATH/$SYS/bin

# Handle replace folders
for TARGET in $REPLACE; do
  mktouch $MODPATH$TARGET/.replace
done

# Auto Mount
$AUTOMOUNT && touch $MODPATH/auto_mount

# prop files
$PROPFILE && cp -af $INSTALLER/common/system.prop $MODPATH/system.prop

# Module info
cp -af $INSTALLER/module.prop $MODPATH/module.prop
if $BOOTMODE; then
  # Update info for Magisk Manager
  mktouch /magisk/$MODID/update
  cp -af $INSTALLER/module.prop /magisk/$MODID/module.prop
fi

# post-fs-data mode scripts
$POSTFSDATA && cp -af $INSTALLER/common/post-fs-data.sh $MODPATH/post-fs-data.sh

# service mode scripts
$LATESTARTSERVICE && cp -af $INSTALLER/common/service.sh $MODPATH/service.sh

ui_print "- Setting permissions"
set_permissions

##########################################################################################
# Finalizing
##########################################################################################

$MAGISKBIN/magisk --umountimg $MOUNTPATH $MAGISKLOOP
rmdir $MOUNTPATH

# Shrink the image if possible
image_size_check $IMG
newSizeM=$((curUsedM / 32 * 32 + 64))
if [ $curSizeM -gt $newSizeM ]; then
  ui_print "- Shrinking $IMG to ${newSizeM}M"
  $MAGISKBIN/magisk --resizeimg $IMG $newSizeM
fi

recovery_cleanup_mod() {
  mv /sbin_tmp /sbin
  # Clear LD_LIBRARY_PATH
  export LD_LIBRARY_PATH=$OLD_LD_PATH
  umount -l /dev/random
}

$BOOTMODE || recovery_cleanup_mod

ui_print "- Done"
exit 0
